/*--------------------------------*- C++ -*----------------------------------*\
| =========                 |                                                 |
| \\      /  F ield         | OpenFOAM: The Open Source CFD Toolbox           |
|  \\    /   O peration     | Version:  v2012                                 |
|   \\  /    A nd           | Website:  www.openfoam.com                      |
|    \\/     M anipulation  |                                                 |
\*---------------------------------------------------------------------------*/
FoamFile
{
    version     2.0;
    format      ascii;
    class       dictionary;
    location    "constant";
    object      turbulenceProperties;
}
// * * * * * * * * * * * * * * * * * * * * * * * * * * * * * * * * * * * * * //
simulationType  LES;

LES
{
    LESModel        WALE;

/*
DeardorffDiffStress
Smagorinsky
SpalartAllmarasDDES
SpalartAllmarasDES
SpalartAllmarasIDDES
WALE
dynamicKEqn
dynamicLagrangian
kEqn
kOmegaSSTDES
*/

    turbulence		on;
    printCoeffs		on;

//WALE coefficients
/*
    WALECoeffs
    {
        Ck                  0.094;
        Ce                  1.048;
        Cw                  0.325;
    }
*/

    delta           cubeRootVol;

/*
IDDESDelta
Prandtl
cubeRootVol
maxDeltaxyz
smooth
vanDriest
*/

    cubeRootVolCoeffs
    {
        deltaCoeff      1;
    }

/*
    PrandtlCoeffs
    {
        delta           cubeRootVol;

        
	cubeRootVolCoeffs
        {
            deltaCoeff      1;
        }

        smoothCoeffs
        {
            delta           cubeRootVol;
            cubeRootVolCoeffs
            {
                deltaCoeff      1;
            }

            maxDeltaRatio   1.1;
        }
	

        Cdelta          0.158;
    }
*/

/*
    vanDriestCoeffs
    {

        delta           smooth;

        cubeRootVolCoeffs
        {
            deltaCoeff      1;
        }

        smoothCoeffs
        {
            delta           cubeRootVol;
            cubeRootVolCoeffs
            {
                deltaCoeff      1;
            }

            maxDeltaRatio   1.1;
        }

        Aplus           26;
        Cdelta          0.158;

    }
*/

/*
    smoothCoeffs
    {

        delta           cubeRootVol;

        cubeRootVolCoeffs
        {
            deltaCoeff      1;
        }

        maxDeltaRatio   1.1;
    }
*/

}

// ************************************************************************* //
