/*--------------------------------*- C++ -*----------------------------------*\
| =========                 |                                                 |
| \\      /  F ield         | OpenFOAM: The Open Source CFD Toolbox           |
|  \\    /   O peration     | Version:  v2012                                 |
|   \\  /    A nd           | Website:  www.openfoam.com                      |
|    \\/     M anipulation  |                                                 |
\*---------------------------------------------------------------------------*/
FoamFile
{
    version     2.0;
    format      ascii;
    class       dictionary;
    location    "system";
    object      controlDict;
}
// * * * * * * * * * * * * * * * * * * * * * * * * * * * * * * * * * * * * * //

application     simpleFoam;

startFrom       latestTime;

startTime       0;

stopAt          endTime;

endTime         10000;

deltaT          1;

writeControl    adjustable;

writeInterval   1000; 

purgeWrite      50;

writeFormat     ascii;

writePrecision  8;

writeCompression off;

timeFormat      general;

timePrecision   8;

runTimeModifiable yes;

maxCo   0.5;

functions
{
    solverInfo
    {
        type            solverInfo;
        libs            ("libutilityFunctionObjects.so");
        fields          (U p);
        timeInterval        1;
        writeResidualFields yes;
        writeControl    writeTime;
        timeInterval        1000;
    }
    forces
    {
        type            forces;
        libs            (forces);
        writeControl    writeTime;
        timeInterval        1000;
        timeStart       0;
        patches         (airfoil);
        CofR            (0 0 0);
        writeFields     yes;
        rho             rhoInf;
        rhoInf          1.1845;
    }
    forceCoeffs
    {
        type                forceCoeffs;
        libs                ( "libforces.so" );
        writeControl        writeTime;
        timeInterval        1000;
        patches             ("airfoil");
        rho                 rhoInf;
        log                 true;
        liftDir             (0 1 0);
        dragDir             (1 0 0);
        CofR                (0 0 0);
        pitchAxis           (0 0 1);
        magUInf             7.56;
        rhoInf              1.1845;
        lRef                31.15e-3;
        Aref                0.048516;
    }
    yPlus
    {
        type yPlus;
        libs (fieldFunctionObjects);
        patches (airfoil);
        writeControl writeTime;
        timeInterval        1000;
        timeStart 0;
        executeControl timeStep;
    }
}
// ************************************************************************* //
