/*--------------------------------*- C++ -*----------------------------------*\
| =========                 |                                                 |
| \\      /  F ield         | OpenFOAM: The Open Source CFD Toolbox           |
|  \\    /   O peration     | Version:  v2012                                 |
|   \\  /    A nd           | Website:  www.openfoam.com                      |
|    \\/     M anipulation  |                                                 |
\*---------------------------------------------------------------------------*/
FoamFile
{
    version     2.0;
    format      ascii;
    class       dictionary;
    location    "system";
    object      fvSolution;
}
// * * * * * * * * * * * * * * * * * * * * * * * * * * * * * * * * * * * * * //

solvers
{
    p
    {
        solver           GAMG;
        tolerance        1e-4;
        relTol           0.01; //switch to 0 for LES after certain time
        smoother         GaussSeidel;
        nPreSweeps       0;
        nPostSweeps      2;
        cacheAgglomeration on;
        agglomerator     faceAreaPair;
        nCellsInCoarsestLevel 100;
        mergeLevels      1;
	    minIter		 2;
    }

    pFinal
    {
	    $p;
        tolerance        1e-6;//switch to 1e-8 for LES after certain time
	    relTol		 0;
	    minIter		 1;
    }

    U
    {
        solver          PBiCGStab;
        preconditioner  DILU;
        tolerance       1e-05;//switch to 1e-8 for LES after certain time
        relTol          0.0;
    }

    UFinal
    {
        solver          PBiCGStab;
        preconditioner  DILU;
        tolerance       1e-08;//switch to 1e-8 for LES after certain time
        relTol          0;
	minIter		1;
    }
    k
    
    {
        solver          PBiCGStab;
        preconditioner  DILU;
	    tolerance       1e-05;
        relTol          0;
        //relTol          0;
    }

    omega
    {
        //solver          smoothSolver;
        //smoother 	  GaussSeidel;
     
	    solver          PBiCGStab;
        preconditioner  DILU;
	    tolerance       1e-08;
        relTol          0.001;
        //relTol          0;
    }
}


PIMPLE
{
    momentumPredictor yes;
    nOuterCorrectors 1;
    nCorrectors     4; //switch to 3 for LES after certain time
    nNonOrthogonalCorrectors 2;
    transonic       no;
    consistent      no;
}

relaxationFactors
{
    nuTilda         1;
    U               1;
    p               1;
    ".*Final"        1.0;
}


// ************************************************************************* //
