/*--------------------------------*- C++ -*----------------------------------*\
| =========                 |                                                 |
| \\      /  F ield         | OpenFOAM: The Open Source CFD Toolbox           |
|  \\    /   O peration     | Version:  v2012                                 |
|   \\  /    A nd           | Website:  www.openfoam.com                      |
|    \\/     M anipulation  |                                                 |
\*---------------------------------------------------------------------------*/
FoamFile
{
    version     2.0;
    format      ascii;
    class       dictionary;
    location    "system";
    object      fvSchemes;
}
// * * * * * * * * * * * * * * * * * * * * * * * * * * * * * * * * * * * * * //

ddtSchemes
{
    default         backward;
}

gradSchemes
{
    default cellLimited Gauss linear 0;
    grad(U) cellLimited Gauss linear 0.33;
}

divSchemes
{
    default         none;
    div(phi,U)      Gauss LUST grad(U);
    div(phi,nuTilda) Gauss linearUpwind default;
    div(phi,k) 		Gauss linearUpwind default;
    div(phi,omega) 	Gauss linearUpwind default;
    div((nuEff*dev2(T(grad(U))))) Gauss linear;
}

interpolationSchemes
{
    default         linear;
}

laplacianSchemes
{
    default         Gauss linear limited 1;
}

snGradSchemes
{
    default         limited 1;
}

wallDist
{
    method          meshWave;
}



// ************************************************************************* //
